atmTurbModel/atmTurbModel.C
atmTurbModel/atmTurbModelSolve.C

kEpsilonModified/kEpsilonModified.C

atmTurbSimpleFoam.C

EXE = $(FOAM_USER_APPBIN)/atmTurbSimpleFoam
