atmTurbMesh/atmTurbMesh.C
atmTurbMesh/atmTurbMeshSolve.C

atmTurbSimpleFoam.C

EXE = $(FOAM_USER_APPBIN)/atmTurbSimpleFoam
