atmTurbMesh.C
atmTurbMeshSolve.C
atmTurbSimpleFoam.C

EXE = $(FOAM_USER_APPBIN)/atmTurbSimpleFoam
