/*--------------------------------*- C++ -*----------------------------------*\
  =========                 |
  \\      /  F ield         | OpenFOAM: The Open Source CFD Toolbox
   \\    /   O peration     | Website:  https://openfoam.org
    \\  /    A nd           | Version:  9
     \\/     M anipulation  |
\*---------------------------------------------------------------------------*/
FoamFile
{
    format      ascii;
    class       dictionary;
    location    "constant";
    object      fvModels;
}
// * * * * * * * * * * * * * * * * * * * * * * * * * * * * * * * * * * * * * //

geostrophicForce
{
    type            geostrophicForce;

    selectionMode   all;

		UName						U;
		Ug							(6 0 0);
		f								(0 0 0.826e-4);
}

// boussinesqBuoyancyForce
// {
// 		type						boussinesqBuoyancyForce;
// 
// 		selectionMode		all;
// 
// 		UName						U;
// 		theta0					[0 0 0 1 0] 300;
// 		g								[0 1 -2 0 0] (0 0 -10);
// }

boussinesqBuoyancyKSource
{
		type						boussinesqBuoyancyKSource;

		selectionMode		all;
}

// ************************************************************************* //
