
/*--------------------------------*- C++ -*----------------------------------*/

// File was generated by SwiftBlock, a Blender 3D addon.

FoamFile
{
    version     2.0;
    format      ascii;
    class       dictionary;
    object      blockMeshDict;
}
// * * * * * * * * * * * * * * * * * * * * * * * * * * * * * * * * * * * * * //

deltaT          1;

writeInterval   1;



// ************************************************************************* //


geometry
{
}
vertices
(
    (-1.645645022392273 -1.645645022392273 -1.645645022392273)
    (-1.645645022392273 -1.645645022392273 1.645645022392273)
    (-1.645645022392273 1.645645022392273 -1.645645022392273)
    (-1.645645022392273 1.645645022392273 1.645645022392273)
    (1.645645022392273 -1.645645022392273 -1.645645022392273)
    (1.645645022392273 -1.645645022392273 1.645645022392273)
    (1.645645022392273 1.645645022392273 -1.645645022392273)
    (1.645645022392273 1.645645022392273 1.645645022392273)
);
edges
(
);
faces
(
);
blocks
(
// block id 0 
hex (0 2 3 1 4 6 7 5)  (10 10 10) edgeGrading (
(
 (0 0 1) (1 10 1) (0 0 1) 
)
(
 (0 0 1) (1 10 1) (0 0 1) 
)
(
 (0 0 1) (1 10 1) (0 0 1) 
)
(
 (0 0 1) (1 10 1) (0 0 1) 
)
(
 (0 0 1) (1 10 1) (0 0 1) 
)
(
 (0 0 1) (1 10 1) (0 0 1) 
)
(
 (0 0 1) (1 10 1) (0 0 1) 
)
(
 (0 0 1) (1 10 1) (0 0 1) 
)
(
 (0 0 1) (1 10 1) (0 0 1) 
)
(
 (0 0 1) (1 10 1) (0 0 1) 
)
(
 (0 0 1) (1 10 1) (0 0 1) 
)
(
 (0 0 1) (1 10 1) (0 0 1) 
)
)
);

patches
(
     wall default.002
    (
        (0 1 3 2)
        (2 3 7 6)
        (6 7 5 4)
        (4 5 1 0)
        (2 6 4 0)
        (7 3 1 5)
    )
);