/*--------------------------------*- C++ -*----------------------------------*\
  =========                 |
  \\      /  F ield         | OpenFOAM: The Open Source CFD Toolbox
   \\    /   O peration     | Website:  https://openfoam.org
    \\  /    A nd           | Version:  9
     \\/     M anipulation  |
\*---------------------------------------------------------------------------*/
FoamFile
{
    format      ascii;
    class       volScalarField;
    location    "constant";
    object      lad;
}
// * * * * * * * * * * * * * * * * * * * * * * * * * * * * * * * * * * * * * //

dimensions      [0 -2 0 0 0 0 0];

internalField   nonuniform List<scalar> 
12000
(
0
0
0
0
0
0
0
0
0
0
0
0
0
0
0
0
0
0
0
0
0
0
0
0
0
0
0
0
0
0
0
0
0
0
0
0
0
0
0
0
0
0
0
0
0
0
0
0
0
0
0
0
0
0
0
0
0
0
0
0
0
0
0
0
0
0
0
0
0
0
0
0
0
0
0
0
0
0
0
0
0
0
0
0
0
0
0
0
0
0
0
0
0
0
0
0
0
0
0
0
0
0
0
0
0
0
0
0
0
0
0
0
0
0
0
0
0
0
0
0
0
0
0
0
0
0
0
0
0
0
0
0
0
0
0
0
0
0
0
0
0
0
0
0
0
0
0
0
0
0
0
0
0
0
0
0
0
0
0
0
0
0
0
0
0
0
0
0
0
0
0
0
0
0
0
0
0
0
0
0
0
0
0
0
0
0
0
0
0
0
0
0
0
0
0
0
0
0
0
0
0
0
0
0
0
0
0
0
0
0
0
0
0
0
0
0
0
0
0
0
0
0
0
0
0
0
0
0
0
0
0
0
0
0
0
0
0
0
0
0
0
0
0
0
0
0
0
0
0
0
0
0
0
0
0
0
0
0
0
0
0
0
0
0
0
0
0
0
0
0
0
0
0
0
0
0
0
0
0
0
0
0
0
0
0
0
0
0
0
0
0
0
0
0
0
0
0
0
0
0
0
0
0
0
0
0
0
0
0
0
0
0
0
0
0
0
0
0
0
0
0
0
0
0
0
0
0
0
0
0
0
0
0
0
0
0
0
0
0
0
0
0
0
0
0
0
0
0
0
0
0
0
0
0
0
0
0
0
0
0
0
0
0
0
0
0
0
0
0
0
0
0
0
0
0
0
0
0
0
0
0
0
0
0
0
0
0
0
0
0
0
0
0
0
0
0
0
0
0
0
0
0
0
0
0
0
0
0
0
0
0
0
0
0
0
0
0
0
0
0
0
0
0
0
0
0
0
0
0
0
0
0
0
0
0
0
0
0
0
0
0
0
0
0
0
0
0
0
0
0
0
0
0
0
0
0
0
0
0
0
0
0
0
0
0
0
0
0
0
0
0
0
0
0
0
0
0
0
0
0
0
0
0
0
0
0
0
0
0
0
0
0
0
0
0
0
0
0
0
0
0
0
0
0
0
0
0
0
0
0
0
0
0
0
0
0
0
0
0
0
0
0
0
0
0
0
0
0
0
0
0
0
0
0
0
0
0
0
0
0
0
0
0
0
0
0
0
0
0
0
0
0
0
0
0
0
0
0
0
0
0
0
0
0
0
0
0
0
0
0
0
0
0
0
0
0
0
0
0
0
0
0
0
0
0
0
0
0
0
0
0
0
0
0
0
0
0
0
0
0
0
0
0
0
0
0
0
0
0
0
0
0
0
0
0
0
0
0
0
0
0
0
0
0
0
0
0
0
0
0
0
0
0
0
0
0
0
0
0
0
0
0
0
0
0
0
0
0
0
0
0
0
0
0
0
0
0
0
0
0
0
0
0
0
0
0
0
0
0
0
0
0
0
0
0
0
0
0
0
0
0
0
0
0
0
0
0
0
0
0
0
0
0
0
0
0
0
0
0
0
0
0
0
0
0
0
0
0
0
0
0
0
0
0
0
0
0
0
0
0
0
0
0
0
0
0
0
0
0
0
0
0
0
0
0
0
0
0
0
0
0
0
0
0
0
0
0
0
0
0
0
0
0
0
0
0
0
0
0
0
0
0
0
0
0
0
0
0
0
0
0
0
0
0
0
0
0
0
0
0
0
0
0
0
0
0
0
0
0
0
0
0
0
0
0
0
0
0
0
0
0
0
0
0
0
0
0
0
0
0
0
0
0
0
0
0
0
0
0
0
0
0
0
0
0
0
0
0
0
0
0
0
0
0
0
0
0
0
0
0
0
0
0
0
0
0
0
0
0
0
0
0
0
0
0
0
0
0
0
0
0
0
0
0
0
0
0
0
0
0
0
0
0
0
0
0
0
0
0
0
0
0
0
0
0
0
0
0
0
0
0
0
0
0
0
0
0
0
0
0
0
0
0
0
0
0
0
0
0
0
0
0
0
0
0
0
0
0
0
0
0
0
0
0
0
0
0
0
0
0
0
0
0
0
0
0
0
0
0
0
0
0
0
0
0
0
0
0
0
0
0
0
0
0
0
0
0
0
0
0
0
0
0
0
0
0
0
0
0
0
0
0
0
0
0
0
0
0
0
0
0
0
0
0
0
0
0
0
0
0
0
0
0
0
0
0
0
0
0
0
0
0
0
0
0
0
0
0
0
0
0
0
0
0
0
0
0
0
0
0
0
0
0
0
0
0
0
0
0
0
0
0
0
0
0
0
0
0
0
0
0
0
0
0
0
0
0
0
0
0
0
0
0
0
0
0
0
0
0
0
0
0
0
0
0
0
0
0
0
0
0
0
0
0
0
0
0
0
0
0
0
0
0
0
0
0
0
0
0
0
0
0
0
0
0
0
0
0
0
0
0
0
0
0
0
0
0
0
0
0
0
0
0
0
0
0
0
0
0
0
0
0
0
0
0
0
0
0
0
0
0
0
0
0
0
0
0
0
0
0
0
0
0
0
0
0
0
0
0
0
0
0
0
0
0
0
0
0
0
0
0
0
0
0
0
0
0
0
0
0
0
0
0
0
0
0
0
0
0
0
0
0
0
0
0
0
0
0
0
0
0
0
0
0
0
0
0
0
0
0
0
0
0
0
0
0
0
0
0
0
0
0
0
0
0
0
0
0
0
0
0
0
0
0
0
0
0
0
0
0
0
0
0
0
0
0
0
0
0
0
0
0
0
0
0
0
0
0
0
0
0
0
0
0
0
0
0
0
0
0
0
0
0
0
0
0
0
0
0
0
0
0
0
0
0
0
0
0
0
0
0
0
0
0
0
0
0
0
0
0
0
0
0
0
0
0
0
0
0
0
0
0
0
0
0
0
0
0
0
0
0
0
0
0
0
0
0
0
0
0
0
0
0
0
0
0
0
0
0
0
0
0
0
0
0
0
0
0
0
0
0
0
0
0
0
0
0
0
0
0
0
0
0
0
0
0
0
0
0
0
0
0
0
0
0
0
0
0
0
0
0
0
0
0
0
0
0
0
0
0
0
0
0
0
0
0
0
0
0
0
0
0
0
0
0
0
0
0
0
0
0
0
0
0
0
0
0
0
0
0
0
0
0
0
0
0
0
0
0
0
0
0
0
0
0
0
0
0
0
0
0
0
0
0
0
0
0
0
0
0
0
0
0
0
0
0
0
0
0
0
0
0
0
0
0
0
0
0
0
0
0
0
0
0
0
0
0
0
0
0
0
0
0
0
0
0
0
0
0
0
0
0
0
0
0
0
0
0
0
0
0
0
0
0
0
0
0
0
0
0
0
0
0
0
0
0
0
0
0
0
0
0
0
0
0
0
0
0
0
0
0
0
0
0
0
0
0
0
0
0
0
0
0
0
0
0
0
0
0
0
0
0
0
0
0
0
0
0
0
0
0
0
0
0
0
0
0
0
0
0
0
0
0
0
0
0
0
0
0
0
0
0
0
0
0
0
0
0
0
0
0
0
0
0
0
0
0
0
0
0
0
0
0
0
0
0
0
0
0
0
0
0
0
0
0
0
0
0
0
0
0
0
0
0
0
0
0
0
0
0
0
0
0
0
0
0
0
0
0
0
0
0
0
0
0
0
0
0
0
0
0
0
0
0
0
0
0
0
0
0
0
0
0
0
0
0
0
0
0
0
0
0
0
0
0
0
0
0
0
0
0
0
0
0
0
0
0
0
0
0
0
0
0
0
0
0
0
0
0
0
0
0
0
0
0
0
0
0
0
0
0
0
0
0
0
0
0
0
0
0
0
0
0
0
0
0
0
0
0
0
0
0
0
0
0
0
0
0
0.63902
0
0
0
0
0
0
0
0
0
0
0
0
0
0
0
0
0
0
0
0.114912
0.0128174
0
0
0
0
0
0
0
0
0
0
0
0
0
0
0
0
0
0
0
0
0
0
0
0
0
0
0
0
0
0
0
0
0
0
0
0
0
0
0
0
0
0
0
0
0
0
0
0
0
0
0
0
0
0
0
0
0
0
0
0
0
0
0
0
0
0
0
0
0
0
0
0
0
0
0
0
0
0
0
0
0
0
0.201903
0
0
0
0
0
0
0
0
0
0
0
0
0
0
0
0
1.49536
0.405123
0
0
0
0
0
0
0
0
0
0
0
0
0
0
0
0
0
0
0
0
0
0
0
0
0
0
0
0
0
0
0
0
0
0
0
0
0
0
0
0
0
0
0
0
0
0
0
0
0
0
0
0
0
0
0
0
0
0
0
0
0
0
0
0
0
0
0
0
0
0
0
0
0
0
0
0
0
0
0
0
0
0
0
0
0
0
0
0
0
0
0
0
0
0
0
0
0
0
0
0
0
0
0
0
0
0
0
0
0
0
0
0
0
0
0
0
0
0
0
0
0
0
0
0
0
0
0
0
0
0
0
0
0
0
0
0
0
0
0
0
0
0
0
0
0
0
0
0
0
0
0
0
0
0
0
0
0
0
0
0
0
0
0
0
0
0
0
0
0
0
0
0
0
0
0
0
0
0
0
0
0
0
0
0
0
0
0
0
0
0
0
0
0
0
0
0
0
0
0
0
0
0
0
0
0
0
0
0
0
0
0
0
0
0
0
0
0
0
0
0
0
0
0
0
0
0
0
0
0
0
0
0
0
0
0
0
0
0
0
0
0
0
0
0
0
0
0
0
0
0
0
0
0
0
0
0
0
0.0585436
0
0
0
0
0
0
0
0
0
0
0
0
0
0
0
0
0
0
0
1.71184
0.0488793
0
0
0
0
0
0
0
0
0
0
0
0
0
0
0
0
0
0
0.731495
0.0605778
0
0
0
0
0
0
0
0
0
0
0
0
0
0
0
0
0.325613
0
0
0
0
0
0
0
0
0
0
0
0
0
0
0
0
0
0
0
0.152238
1.05027
0.120022
0
0
0
0
0
0
0
0
0
0
0
0
0
0
0
0
0
0
0
0
0
0
0
0
0
0
0
0
0
0
0
0
0
0
0
0
0
0
0
0
0
0
0
1.68352
0.057734
0
0
0
0
0
0
0
0
0
0
0
0
0
0
0
0.696903
1.46924
0
0
0
0
0
0
0
0
0
0
0
0
0
0
0
0
0
0
0
0.0873447
0
0
0
0
0
0
0
0
0
0
0
0
0
0
0
0
0
0
0
0.417165
0
0
0
0
0
0
0
0
0
0
0
0
0
0
0
0
0
0
0
0
0
0
0
0
0
0
0
0
0
0
0
0
0
0
0
0
0
0
0
0
0
0
0
0
0
0
0
0
0
0
0
0
0
0
0
0
0
0
0
0
0
0
0
0
0
0
0
0
0
0
0
0
0
0
0
0
0
0
0
0
0
0
0
0
0
0
0
0
0
0
0
0
0
0
0
0
0
0
0
0
0
0
0
0
0
0
0
0
0
0
0
0
0
0
0
0
0
0
0
0
0
0
0
0
0
0
0
0
0
0
0
0
0
0
0
0
0
0
0
0
0
0
0
0
0
0
0
0
0
0
0
0
0
0
0
0
0
0
0
0
0
0
0
0
0
0
0
0
0
0
0
0
0
0
0
0
0
0
0
0
0
0
0
0
0
0
0
0
0
0
0
0
0
0
0
0
0
0
0
0
0
0
0
0
0
0
0
0
0
0
0
0
0
0
0
0
0
0
0.0523493
0
0
0
0
0
0
0
0
0
0
0
0
0
0
0
0
0.579408
0
1.30282
0
0.869664
0.368043
0
0
0
0
0
0
0
0
0
0
0
0
0
0.00484239
0
0
0.216325
0
0.0292596
0.538977
0
0
0
0
0
0
0
0
0
0
0
0
0
0
0.159849
0
0
0
0
0.534662
0
0
0
0
0
0
0
0
0
0
0
0
0
0
1.35992
0.840931
0.485753
0
0
0
0
0.0914995
0
0
0
0
0
0
0
0
0
0
0
0
0.130158
0
0
0
0
0
0.107684
0.017717
0
0
0
0
0
0
0
0
0
0
0
0
0
0
0
0.0526329
0
0.0483856
1.72002
0
0
0
0
0
0
0
0
0
0
0
0
0
0
0
0.269593
1.38819
0.781448
0.0659571
0
0
0
0
0
0
0
0
0
0
0
0
0
0
0.0151674
0
0.0416895
0.0633589
1.0545
0.244237
0.125564
0
0
0
0
0
0
0
0
0
0
0
0
0
0
0
0
0
0.980196
0.974899
0.369013
0
0
0
0
0
0
0
0
0
0
0
0
0
0
0
0
0
0
0
0
0
0
0
0
0
0
0
0
0
0
0
0
0
0
0
0
0
0
0
0
0
0
0
0
0
0
0
0
0
0
0
0
0
0
0
0
0
0
0
0
0
0
0
0
0
0
0
0
0
0
0
0
0
0
0
0
0
0
0
0
0
0
0
0
0
0
0
0
0
0
0
0
0
0
0
0
0
0
0
0
0
0
0
0
0
0
0
0
0
0
0
0
0
0
0
0
0
0
0
0
0
0
0
0
0
0
0
0
0
0
0
0
0
0
0
0
0
0
0
0
0
0
0
0
0
0
0
0
0
0
0
0
0
0
0
0
0
0
0
0
0
0
0
0
0
0
0
0
0
0
0
0
0
0
0
0
0
0
0
0
0
0
0
0
0
0
0
0
0
0
0
0
0
0
0
0
0
0
0
0
0
0
0
0
0
0
0
0
0
0
0
0
0
0
0.063106
0
0.915902
0.155426
0.443082
0
0
0
0
0
0
0
0
0
0
0
0
0
0
0.185677
0.219136
0.437792
0.286356
1.16766
1.24711
0.123891
0.313656
0
0
0
0
0
0
0
0
0
0
0
0.356214
1.34044
0.0943476
0.117841
0
1.04065
0.881525
0.0374975
0.0216432
0
0
0
0
0
0
0
0
0
0
0
0
0.228008
0.161737
0.0353328
0
0.222953
0.644322
0.866217
0
0
0
0
0
0
0
0
0
0
0
0
0
0.899585
1.89644
1.09761
0
0
0
0.31613
1.24016
0.0195216
0
0
0
0
0
0
0
0
0
0
0
0.86467
0.434192
0
0
0
0.0141222
0.535165
0.717781
0
0
0
0
0
0
0
0
0
0
0
0.101714
0.700127
0.827682
0
0.535433
0
0.721268
0.378294
0
0
0
0
0
0
0
0
0
0
0
0
0
0.0335562
0
0.411162
0.663776
1.3716
0.291334
0
0
0
0
0
0
0
0
0
0
0
0
0
0
0.655891
0
0
0
1.32621
2.17746
0.193601
0
0
0
0
0
0
0
0
0
0
0
0
0
0.0768648
0
0
0.275676
0.723927
1.55842
0.189174
0.275861
0
0
0
0
0
0
0
0
0
0
0
0
0
0
0
0.257161
0.044294
0
0
0
0
0
0
0
0
0
0
0
0
0
0
0
0
0
0
0
0
0
0
0
0
0
0
0
0
0
0
0
0
0
0
0
0
0
0
0
0
0
0
0
0
0
0
0
0
0
0
0
0
0
0
0
0
0
0
0
0
0
0
0
0
0
0
0
0
0
0
0
0
0
0
0
0
0
0
0
0
0
0
0
0
0
0
0
0
0
0
0
0
0
0
0
0
0
0
0
0
0
0
0
0
0
0
0
0
0
0
0
0
0
0
0
0
0
0
0
0
0
0
0
0
0
0
0
0
0
0
0
0
0
0
0
0
0
0
0
0
0
0
0
0
0
0
0
0
0
0
0
0
0
0
0
0
0
0
0
0
0
0
0
0
0
0
0
0
0
0
0
0
0
0
0
0
0
0
0
0.20594
0.180532
0
0
0
0
0
0
0
0
0
0
0
0
0
0
0
0.0718673
0
0.635753
3.22622
0.16718
0
0
0
0
0
0
0
0
0
0
0
0
0
0
0.045236
1.85319
0.977672
2.20921
0.727299
0.0612387
1.08208
0.761739
0
0
0
0
0
0
0
0
0
0
0
0
0.972287
1.84816
0.665895
0.133567
1.77854
0.166157
0.829112
0.824057
0
0
0
0
0
0
0
0
0
0
0
0
1.70187
1.52752
0.581855
0
0.278904
1.79489
1.95854
1.39802
0.184679
0
0
0
0
0
0
0
0
0
0
0
0.781292
1.40178
0.401301
0
0
0.159518
0.424387
1.19194
1.02549
0
0
0
0
0
0
0
0
0
0
0
0.501084
1.41691
0.0563383
0
0.00897367
0.418694
1.36556
0.429471
0
0
0
0
0
0
0
0
0
0
0
0.619091
0.992927
1.63615
0
0.853894
0.652605
3.27052
1.18313
0
0
0
0
0
0
0
0
0
0
0
0
0.00771736
0.758277
0.0382013
0
0.683007
1.95863
1.65272
0
0.00842111
0
0
0
0
0
0
0
0
0
0
0
0
1.15353
0.491004
0.697929
0.54465
1.68063
1.41981
0.668068
0.438549
0.176533
0
0
0
0
0
0
0
0
0
0
0
0.162074
0
0.270648
0.905123
0.127683
0.203842
1.26083
0.00919661
0
0
0
0
0
0
0
0
0
0
0
0
0
0
0
0.314886
0.00684751
0
0.0298201
0
0
0
0
0
0
0
0
0
0
0
0
0
0
0
0
0
0
0
0
0
0
0
0
0
0
0
0
0
0
0
0
0
0
0
0
0
0
0
0
0
0
0
0
0
0
0
0
0
0
0
0
0
0
0
0
0
0
0
0
0
0
0
0
0
0
0
0
0
0
0
0
0
0
0
0
0
0
0
0
0
0
0
0
0
0
0
0
0
0
0
0
0
0
0
0
0
0
0
0
0
0
0
0
0
0
0
0
0
0
0
0
0
0
0
0
0
0
0
0
0
0
0
0
0
0
0
0
0
0
0
0
0
0
0
0
0
0
0
0
0
0
0
0
0
0
0
0
0
0
0
0
0
0
0
0
0
0
0
0
0
0
0
0
0
0
0
0
0
0
0
0
0
0
0
0
0
0
0.653984
0.0152911
0
0
0
0
0
0
0
0
0
0
0
0
0
0.560089
0
0
0
2.73051
1.50796
0
0
0
0
0
0
0
0
0
0
0
0
0
0
0.0483236
1.64751
0.0564309
1.33271
0.554519
0.203853
1.37131
0
0
0
0
0
0
0
0
0
0
0
0
0
0.667299
2.56174
0.510206
0.337964
0.922356
1.00871
0.855845
0.08901
0
0
0
0
0
0
0
0
0
0
0
0
0.326637
1.38901
1.95994
0.118061
0.572349
0.329346
0.363404
2.37665
0.236415
0
0
0
0
0
0
0
0
0
0
0.0110766
0.0202577
0.707985
0.72439
0.288082
0.326767
0.688948
2.12496
2.13208
1.49291
0
0
0
0
0
0
0
0
0
0
0.0100653
0.626351
2.19573
2.03309
0.0794627
0.924143
0.907933
1.33745
0.0785974
0.0481404
0
0
0
0
0
0
0
0
0
0
0
0.662631
2.52142
0.222248
0.298185
0.202987
1.76688
0.0113041
0
0
0
0
0
0
0
0
0
0
0
0
0.920998
0.340136
2.01331
0.291939
0.373552
0.720079
1.46649
0
0.683232
0.839326
0
0
0
0
0
0
0
0
0
0
0.018297
1.14663
0.640831
1.15076
1.55297
0.863208
2.98603
0.825836
0.708075
0.0438396
0
0
0
0
0
0
0
0
0
0
0
0
0.538534
1.19048
0.890996
0.709367
0.703864
0.377046
0.00989828
0
0
0
0
0
0
0
0
0
0
0
0
0
0
0.531485
0.136471
0
0
0
0
0
0
0
0
0
0
0
0
0
0
0
0
0
0
0
0
0
0
0
0
0
0
0
0
0
0
0
0
0
0
0
0
0
0
0
0
0
0
0
0
0
0
0
0
0
0
0
0
0
0
0
0
0
0
0
0
0
0
0
0
0
0
0
0
0
0
0
0
0
0
0
0
0
0
0
0
0
0
0
0
0
0
0
0
0
0
0
0
0
0
0
0
0
0
0
0
0
0
0
0
0
0
0
0
0
0
0
0
0
0
0
0
0
0
0
0
0
0
0
0
0
0
0
0
0
0
0
0
0
0
0
0
0
0
0
0
0
0
0
0
0
0
0
0
0
0
0
0
0
0
0
0
0
0
0
0
0
0
0
0
0
0
0
0
0
0
0
0
0
0
0
0
0
0.0935335
0
0
0
0
0
0
0
0
0
0
0
0
0
0
0
0
0
0
0
1.04067
0.0605296
0.0307825
0.753232
1.37471
1.11901
0
0
0
0
0
0
0
0
0
0
0
0
0
0.43393
2.24217
0.116572
0.269082
0.16446
0.788596
0.635783
0.855063
0
0
0
0
0
0
0
0
0
0
0
0
0.640367
2.97159
1.59987
0.943365
0.697861
0.611698
2.23941
0.640798
0.00542316
0
0
0
0
0
0
0
0
0
0
0
0.00506097
0.989746
1.79493
0.826935
0.521083
0.552773
0.716481
0.410405
0
0
0
0
0
0
0
0
0
0
0
1.58821
0.334619
0
0.385929
0.227814
0.266465
0.646164
1.80441
2.37932
1.12214
0
0
0
0
0
0
0
0
0
0
1.16874
1.43742
0.554729
1.18832
0.177393
0.219988
0.181682
0.45049
0.600733
1.01789
1.13002
0
0
0
0
0
0
0
0
0
0.276833
1.01437
1.52849
0.400222
0.6773
0.99211
0.424009
0
0.0576677
0.0371967
0
0
0
0
0
0
0
0
0
0
1.03914
1.38113
0.564262
1.2795
0.996363
1.28513
0.0982204
0.303863
0.59294
0.217577
0
0
0
0
0
0
0
0
0
0
0.766734
0.885926
2.14158
2.16354
0.236562
0.768061
0.573722
1.11325
0.914745
0
0
0
0
0
0
0
0
0
0
0
0
0.12723
1.16356
1.7828
0.646704
0.494042
0.102079
0.471701
0.732749
0
0
0
0
0
0
0
0
0
0
0
0
0
0
0
0
0
0
0
0
0
0
0
0
0
0
0
0
0
0
0
0
0
0
0
0
0
0
0
0
0
0
0
0
0
0
0
0
0
0
0
0
0
0
0
0
0
0
0
0
0
0
0
0
0
0
0
0
0
0
0
0
0
0
0
0
0
0
0
0
0
0
0
0
0
0
0
0
0
0
0
0
0
0
0
0
0
0
0
0
0
0
0
0
0
0
0
0
0
0
0
0
0
0
0
0
0
0
0
0
0
0
0
0
0
0
0
0
0
0
0
0
0
0
0
0
0
0
0
0
0
0
0
0
0
0
0
0
0
0
0
0
0
0
0
0
0
0
0
0
0
0
0
0
0
0
0
0
0
0
0
0
0
0
0
0
0
0
0
0
0
0
0
0
0
0
0
0
0
0
0
0
0
0.080633
0.694741
0
0
0
0
0
0
0
0
0
0
0
0
0
0
0
0
0
0
1.44549
0.490458
0.0308416
0.935354
0.432457
0.488572
0.226291
0
0
0
0
0
0
0
0
0
0
0
0
0.290062
1.09503
0.901123
1.11262
0.912591
1.18634
0.846094
0.3513
0.0068547
0
0
0
0
0
0
0
0
0
0
0.35929
0.742597
0.947296
1.61349
0.877621
0.00892708
0.323406
0.786729
0.940442
0.266847
0
0
0
0
0
0
0
0
0
0.121656
0.125881
0.0856915
0.246144
1.21821
0.443315
0.146335
0.536882
0.185097
0.535521
0.665265
0
0
0
0
0
0
0
0
0
0.256714
1.71798
1.25835
0.247301
0.572333
0.184034
0.182021
0.64733
1.42247
2.10796
1.46485
0.0170617
0
0
0
0
0
0
0
0
0
2.28786
1.46501
0.453448
0.452975
0.0904174
0
0.185629
0.347425
0.506442
2.60609
0.72196
0
0
0
0
0
0
0
0
0
0.746935
0.22551
0.750129
0.429103
0.244951
0.269788
0.290463
0
0
0
0.0550331
0
0
0
0
0
0
0
0
0
0.275348
1.13621
0.984812
1.27103
0.840949
0.736731
0.547775
0.306637
0.686913
0
0
0
0
0
0
0
0
0
0
0
0
0
1.20253
2.03657
0.981233
0.391461
1.56792
0.0311586
1.47168
0
0
0
0
0
0
0
0
0
0
0
0
0
0.91866
0.651056
0.923187
1.77701
0.197023
0.096562
0
0
0
0
0
0
0
0
0
0
0
0
0
0
0
0.0690525
0.59901
0
0
0
0
0
0
0
0
0
0
0
0
0
0
0
0
0
0
0
0
0
0
0
0
0
0
0
0
0
0
0
0
0
0
0
0
0
0
0
0
0
0
0
0
0
0
0
0
0
0
0
0
0
0
0
0
0
0
0
0
0
0
0
0
0
0
0
0
0
0
0
0
0
0
0
0
0
0
0
0
0
0
0
0
0
0
0
0
0
0
0
0
0
0
0
0
0
0
0
0
0
0
0
0
0
0
0
0
0
0
0
0
0
0
0
0
0
0
0
0
0
0
0
0
0
0
0
0
0
0
0
0
0
0
0
0
0
0
0
0
0
0
0
0
0
0
0
0
0
0
0
0
0
0
0
0
0
0
0
0
0
0
0
0
0
0
0
0
0
0
0
0
0
0
0
0
0
0
0
0
0
0.0344681
0.155416
0
0
0
0
0
0
0
0
0
0
0
0
0
0
1.75306
1.24243
0.0825698
0.413821
1.63824
2.27081
0.0528169
0
0
0
0
0
0
0
0
0
0
0
0.00758757
0
0.63443
0.892143
0.0972002
0.967828
0.628188
1.65906
0.00816741
0
0
0
0
0
0
0
0
0
0
0
0.315004
0.13277
0.126224
1.20702
0.281701
0.442312
0.734495
0.61923
0.450744
1.45768
0
0
0
0
0
0
0
0
0
0.13503
3.23521
0.512871
0.808753
0.585179
0.198226
0.298622
0.567404
0.733134
0.798708
1.08946
0
0
0
0
0
0
0
0
0
0
2.3271
2.72978
0.530925
0.432166
0
0.178076
0.0360764
1.15183
0.884911
0.0180293
0.0518021
0
0
0
0
0
0
0
0
0
0.0244598
0.500127
0.884244
0.269377
0.270062
0.0571204
0.315316
0.0504338
0.630766
1.23631
0.065923
0
0
0
0
0
0
0
0
0
0.165174
0.583676
1.02323
0.53906
0.323184
0.134591
0.162478
0.860719
1.95986
0.126312
0
0
0
0
0
0
0
0
0
0
0.363394
0.701511
2.23429
1.55188
0.374569
0.369792
0.397223
1.1081
1.93055
0.14225
0
0
0
0
0
0
0
0
0
0
0
0.225995
0.864979
1.12769
0.601198
0.255006
0
0.226963
1.82892
0.0563426
0
0
0
0
0
0
0
0
0
0
0
0
0.206281
0.0718223
0.785317
0.516854
0.829778
0
0.120066
0
0
0
0
0
0
0
0
0
0
0
0
0
0
0.00376688
0.0276933
0
0
0
0
0
0
0
0
0
0
0
0
0
0
0
0
0
0
0
0
0
0
0
0
0
0
0
0
0
0
0
0
0
0
0
0
0
0
0
0
0
0
0
0
0
0
0
0
0
0
0
0
0
0
0
0
0
0
0
0
0
0
0
0
0
0
0
0
0
0
0
0
0
0
0
0
0
0
0
0
0
0
0
0
0
0
0
0
0
0
0
0
0
0
0
0
0
0
0
0
0
0
0
0
0
0
0
0
0
0
0
0
0
0
0
0
0
0
0
0
0
0
0
0
0
0
0
0
0
0
0
0
0
0
0
0
0
0
0
0
0
0
0
0
0
0
0
0
0
0
0
0
0
0
0
0
0
0
0
0
0
0
0
0
0
0
0
0
0
0
0
0
0
0
0
0
0
0
0.0267275
0
0
0
0
0
0
0
0
0
0
0
0
0
0
0
0
0
0
0.006958
1.04749
0
0.147939
0.777843
1.40383
0
0
0
0
0
0
0
0
0
0
0
0
0.177788
0.614835
0.133731
0.927449
0.0596836
0.103534
0.79119
1.38653
0
0
0
0
0
0
0
0
0
0
0
0.0778993
1.29341
3.54752
0.168959
1.14044
0.0462352
0.190833
0.305056
0.331741
0.396459
0.128318
0
0
0
0
0
0
0
0
0
0.133145
1.91813
2.92686
0.0476158
0.440734
0.036889
0.327642
0.13475
0.575308
0.967418
0.0218914
0
0
0
0
0
0
0
0
0
0.042483
1.58025
2.48484
0.341402
0.0821862
0
0
0.146447
1.13398
1.66748
1.29405
0
0
0
0
0
0
0
0
0
0
0.0217102
1.19233
0.330874
0.175046
0.00459935
0.178632
0.632365
0.93737
0.547166
0.482098
0
0
0
0
0
0
0
0
0
0
0.47941
0.680726
0.485656
0.892941
0.244792
0.210393
0.703308
1.27533
1.88552
0
0
0
0
0
0
0
0
0
0
0
0.0897752
0.587786
1.33009
0.650832
0.690466
0.132268
0.632542
1.22304
2.73964
0.820436
0
0
0
0
0
0
0
0
0
0
0
0.0859212
0.645022
0.506632
0.553496
1.18407
0.199784
0.544303
0.0766704
0
0
0
0
0
0
0
0
0
0
0
0
0
0
0.375954
1.26608
1.27495
0.980877
0.45257
0
0
0
0
0
0
0
0
0
0
0
0
0
0
0
0
0.068622
0.0654092
0.00771444
0
0
0
0
0
0
0
0
0
0
0
0
0
0
0
0
0
0
0
0
0
0
0
0
0
0
0
0
0
0
0
0
0
0
0
0
0
0
0
0
0
0
0
0
0
0
0
0
0
0
0
0
0
0
0
0
0
0
0
0
0
0
0
0
0
0
0
0
0
0
0
0
0
0
0
0
0
0
0
0
0
0
0
0
0
0
0
0
0
0
0
0
0
0
0
0
0
0
0
0
0
0
0
0
0
0
0
0
0
0
0
0
0
0
0
0
0
0
0
0
0
0
0
0
0
0
0
0
0
0
0
0
0
0
0
0
0
0
0
0
0
0
0
0
0
0
0
0
0
0
0
0
0
0
0
0
0
0
0
0
0
0
0
0
0
0
0
0
0
0
0
0
0
0
0
0
0
0
0
0
0
0
0
0
0
0
0
0
0
0
0
0
0
0
0
0.526056
0.732753
0.055893
0
0.751604
0.0556817
0.18882
0
0
0
0
0
0
0
0
0
0
0
0
0
0.450049
0.668169
0.512978
0
1.12243
1.56694
1.19786
0
0
0
0
0
0
0
0
0
0
0
1.10777
1.03802
0.454467
0.272563
0.204216
0.454281
0.76818
0.325475
0.27851
0.163485
0
0
0
0
0
0
0
0
0
0
0.354787
2.55687
0.10629
0.472203
0.0752081
0.163829
0.292724
0.758835
0.867972
0.288328
0
0
0
0
0
0
0
0
0
0
0.12669
0.716765
0.518858
0.36162
0
0
0.340527
0.178832
1.14756
2.29138
0.0864374
0
0
0
0
0
0
0
0
0
0
0.0774595
0.347937
0.0328881
0
0.185796
0
0.445613
0.541291
0.529543
0
0
0
0
0
0
0
0
0
0
0.0286165
1.26637
0.27111
0.403731
0.290343
0.0462614
1.0453
1.00631
0.834376
0.200614
0
0
0
0
0
0
0
0
0
0
0
0.39226
1.23439
0.354585
0.657517
0.294558
0.693911
1.73025
1.40132
0.334601
0
0
0
0
0
0
0
0
0
0
0
0.224484
0.504119
0.0083349
0.461544
0.42236
1.8983
0.112751
0.00491552
0
0
0
0
0
0
0
0
0
0
0
0
0
0
0
0.0266921
1.17358
0.547781
1.42952
0
0
0
0
0
0
0
0
0
0
0
0
0
0
0
0
0
0
0
0
0
0
0
0
0
0
0
0
0
0
0
0
0
0
0
0
0
0
0
0
0
0
0
0
0
0
0
0
0
0
0
0
0
0
0
0
0
0
0
0
0
0
0
0
0
0
0
0
0
0
0
0
0
0
0
0
0
0
0
0
0
0
0
0
0
0
0
0
0
0
0
0
0
0
0
0
0
0
0
0
0
0
0
0
0
0
0
0
0
0
0
0
0
0
0
0
0
0
0
0
0
0
0
0
0
0
0
0
0
0
0
0
0
0
0
0
0
0
0
0
0
0
0
0
0
0
0
0
0
0
0
0
0
0
0
0
0
0
0
0
0
0
0
0
0
0
0
0
0
0
0
0
0
0
0
0
0
0
0
0
0
0
0
0
0
0
0
0
0
0
0
0
0
0
0
0.160684
0.458444
0
0.245764
0
0
0
0
0
0
0
0
0
0
0
0
0
0
0
0.226974
3.44014
1.58547
0.386323
0.653946
0.215259
0
0
0
0
0
0
0
0
0
0
0
0
0
0.188188
0.0128088
1.90273
0.433827
0.0797845
0.0117163
1.10328
0.837408
0.16121
0
0
0
0
0
0
0
0
0
0
0.0773603
0.806583
0.410134
0.00978207
0
0.293103
0.412394
0.549915
0.604421
0.179996
0
0
0
0
0
0
0
0
0
0
0.806226
0.846573
1.33301
0.0851309
0
0.217518
0.747677
0.881378
0.681732
1.69231
0.0924529
0
0
0
0
0
0
0
0
0
0
0.14451
1.05433
0.209705
0
0
0.442563
0.412009
2.55358
1.72546
0
0
0
0
0
0
0
0
0
0
0.144933
0
0.183586
0.212203
0
0
0.30674
0.568761
0.360406
0.310986
0
0
0
0
0
0
0
0
0
0.0122879
0.47167
0.0733348
0.707598
0.332335
0.0207544
0.0591508
0.432999
0.496005
2.0965
1.47756
0
0
0
0
0
0
0
0
0
0
0.316169
1.67386
1.49239
0.263253
0.123269
0.29104
1.0996
1.63867
0.519584
0.282578
0
0
0
0
0
0
0
0
0
0
0
0.0899927
0.0777477
0.389957
0.0215983
0.59976
1.45538
1.62932
0.0391222
0
0
0
0
0
0
0
0
0
0
0
0
0
0
0
0
0.288773
2.46848
0.846696
0
0
0
0
0
0
0
0
0
0
0
0
0
0
0
0
0
0
0.314169
0.385126
0
0
0
0
0
0
0
0
0
0
0
0
0
0
0
0
0
0
0
0
0
0
0
0
0
0
0
0
0
0
0
0
0
0
0
0
0
0
0
0
0
0
0
0
0
0
0
0
0
0
0
0
0
0
0
0
0
0
0
0
0
0
0
0
0
0
0
0
0
0
0
0
0
0
0
0
0
0
0
0
0
0
0
0
0
0
0
0
0
0
0
0
0
0
0
0
0
0
0
0
0
0
0
0
0
0
0
0
0
0
0
0
0
0
0
0
0
0
0
0
0
0
0
0
0
0
0
0
0
0
0
0
0
0
0
0
0
0
0
0
0
0
0
0
0
0
0
0
0
0
0
0
0
0
0
0
0
0
0
0
0
0
0
0
0
0
0
0
0
0
0
0
0
0
0
0.284396
0.587227
0.386427
0.0198235
0
0
0
0
0
0
0
0
0
0
0
0
0
0
0
0.177431
3.2512
2.06661
2.42495
2.06438
0
0
0
0
0
0
0
0
0
0
0
0
0
0
0
0
2.16272
2.43678
1.08822
0.322019
0.237905
0.0470105
0.169337
0
0
0
0
0
0
0
0
0
0
0
0.0123965
0.0256583
0.462895
0.808224
0.139553
0.231461
0.989731
1.41381
0.0174395
0
0
0
0
0
0
0
0
0
0
0.393225
0.947628
0.377115
0.178747
0.117658
0.163035
0.176231
0.420057
1.03533
0.158604
0
0
0
0
0
0
0
0
0
0
0.153689
0.922275
0.471223
0
0
0
0.216992
0.513473
0.965128
0.234054
0
0
0
0
0
0
0
0
0
0
1.22822
1.16152
0.368325
0.0340749
0
0
0.304602
0.511934
1.5642
0.507049
0
0
0
0
0
0
0
0
0
0
1.10077
1.69198
0.878214
0.66898
0.300261
0
0.132902
1.55863
2.1403
0.830681
0.440244
0
0
0
0
0
0
0
0
0
0.356837
0.524938
0.502974
0.124455
1.06716
0.403534
0.778938
0.151682
0.0604304
0
0
0
0
0
0
0
0
0
0
0
0
0.257153
0.00534948
1.64528
1.57084
0.34977
1.03311
0.639174
0
0
0
0
0
0
0
0
0
0
0
0
0
0
0.409411
0.892761
0.0249933
0.165155
1.07543
0.418946
0
0
0
0
0
0
0
0
0
0
0
0
0
0
0
0
0
0.0939674
0
0
0
0
0
0
0
0
0
0
0
0
0
0
0
0
0
0
0
0
0
0
0
0
0
0
0
0
0
0
0
0
0
0
0
0
0
0
0
0
0
0
0
0
0
0
0
0
0
0
0
0
0
0
0
0
0
0
0
0
0
0
0
0
0
0
0
0
0
0
0
0
0
0
0
0
0
0
0
0
0
0
0
0
0
0
0
0
0
0
0
0
0
0
0
0
0
0
0
0
0
0
0
0
0
0
0
0
0
0
0
0
0
0
0
0
0
0
0
0
0
0
0
0
0
0
0
0
0
0
0
0
0
0
0
0
0
0
0
0
0
0
0
0
0
0
0
0
0
0
0
0
0
0
0
0
0
0
0
0
0
0
0
0
0
0
0
0
0
0
0
0
0
0
0
0
0
0.635986
0.926532
0
0
0
0
0
0
0
0
0
0
0
0
0
0
0
0
0.10222
0.358247
1.4744
1.6253
0.370697
0.712626
0
0
0
0
0
0
0
0
0
0
0
0
0
0
0
1.26136
0.801971
1.82619
0.78839
1.12493
1.01531
0.274466
0
0
0
0
0
0
0
0
0
0
0
0
0.196689
0.619473
0.719074
0.756778
0.722017
0.336069
1.05997
0.615559
0
0
0
0
0
0
0
0
0
0
0
0.524832
0.205148
0.127929
0.302182
0
0.314389
0.739881
1.31026
0.788473
0.367089
0
0
0
0
0
0
0
0
0
0
0.424226
1.43367
0.273577
0.0304789
0
0.233684
0.380487
0.163037
1.14632
0.959805
0.0372427
0
0
0
0
0
0
0
0
0
0.365107
1.31085
0.922029
0.219709
0.174843
0.177545
0.462011
0.879792
1.37372
0.0847245
0
0
0
0
0
0
0
0
0
0
0.618812
1.72254
0.541258
0.400247
1.01372
0.10965
0.545639
1.44295
0.427436
0.37535
0
0
0
0
0
0
0
0
0
0
1.54751
1.04145
1.16614
1.18727
1.01485
0.899256
0.13693
1.55004
0
0
0
0
0
0
0
0
0
0
0
0
0
0.337724
0.176918
2.06154
2.40192
2.21752
0.646019
0.109892
0
0
0
0
0
0
0
0
0
0
0
0
0
0
0.270077
1.70767
0.366672
1.58428
0.0515415
0
0
0
0
0
0
0
0
0
0
0
0
0
0
0
0
0
0
0.00857768
0
0
0
0
0
0
0
0
0
0
0
0
0
0
0
0
0
0
0
0
0
0
0
0
0
0
0
0
0
0
0
0
0
0
0
0
0
0
0
0
0
0
0
0
0
0
0
0
0
0
0
0
0
0
0
0
0
0
0
0
0
0
0
0
0
0
0
0
0
0
0
0
0
0
0
0
0
0
0
0
0
0
0
0
0
0
0
0
0
0
0
0
0
0
0
0
0
0
0
0
0
0
0
0
0
0
0
0
0
0
0
0
0
0
0
0
0
0
0
0
0
0
0
0
0
0
0
0
0
0
0
0
0
0
0
0
0
0
0
0
0
0
0
0
0
0
0
0
0
0
0
0
0
0
0
0
0
0
0
0
0
0
0
0
0
0
0
0
0
0
0
0
0
0
0
0
0
0
0
0
0
0
0
0
0
0
0
0
0
0
0
0
0
0
0
0
0.0353238
0.0680851
0.903
0.141715
0.419291
1.14839
0
0
0
0
0
0
0
0
0
0
0
0
0
0
0.635111
0.267559
0.573234
0.0564154
0.314822
0.477702
0
0
0
0
0
0
0
0
0
0
0
0
0
0.422207
0.111133
0.658163
0.273159
0.194224
0.708112
0.251576
0
0
0
0
0
0
0
0
0
0
0
0
0.00126481
0.314061
0.925986
0.177984
0
0.0892879
0.322456
0.419958
1.43996
0.704365
0
0
0
0
0
0
0
0
0
0.0310258
0.64684
1.16011
0.364638
0.426695
0
0
0.532994
1.1239
2.68357
0.924022
0
0
0
0
0
0
0
0
0
0
1.0337
1.63414
0.275703
0.268586
0.0172102
0.183405
0.256466
0.920171
1.95496
0.476797
0
0
0
0
0
0
0
0
0
0
0.512831
1.26476
0.20027
0.174848
1.58168
0.32828
0.553747
0.377559
0.0277877
0
0
0
0
0
0
0
0
0
0
0
0.183204
0.181138
0.543284
0.993889
0.897035
1.17267
0.438171
0.0702331
0
0
0
0
0
0
0
0
0
0
0
0
0
0
0.00407408
0.905327
1.67925
0.463613
0.615793
0
0
0
0
0
0
0
0
0
0
0
0
0
0
0
0.00712727
0.198145
1.33013
0.260592
0.0287813
0
0
0
0
0
0
0
0
0
0
0
0
0
0
0
0
0
0
0
0
0
0
0
0
0
0
0
0
0
0
0
0
0
0
0
0
0
0
0
0
0
0
0
0
0
0
0
0
0
0
0
0
0
0
0
0
0
0
0
0
0
0
0
0
0
0
0
0
0
0
0
0
0
0
0
0
0
0
0
0
0
0
0
0
0
0
0
0
0
0
0
0
0
0
0
0
0
0
0
0
0
0
0
0
0
0
0
0
0
0
0
0
0
0
0
0
0
0
0
0
0
0
0
0
0
0
0
0
0
0
0
0
0
0
0
0
0
0
0
0
0
0
0
0
0
0
0
0
0
0
0
0
0
0
0
0
0
0
0
0
0
0
0
0
0
0
0
0
0
0
0
0
0
0
0
0
0
0
0
0
0
0
0
0
0
0
0
0
0
0
0
0
0
0
0
0
0
0
0
0
0
0
0
0
0
0
0
0
0
0
0
0
0
0
0
0
0
0.0176316
0
0.0600632
0
0
0
0
0
0
0
0
0
0
0
0
0
0
0
0.664663
0.163378
0.0239027
0.157787
0.286254
0.479232
0
0
0
0
0
0
0
0
0
0
0
0
0.0150957
1.65221
0.455339
0.568127
0.00974522
0.160139
1.33478
1.18307
0
0
0
0
0
0
0
0
0
0
0
0
0
0.435323
1.19366
0.188693
0
0.0623029
0.97865
0.298693
0.531791
0.261773
0
0
0
0
0
0
0
0
0
0.00467414
0.75523
1.00758
0.693218
0.47477
0.0551947
0
0.189227
1.10584
1.15821
1.12098
0
0
0
0
0
0
0
0
0
0.00581737
0.0533432
0.725084
0.709474
0.0242475
0.0369814
0.0194854
0.626057
1.09707
1.08162
0.762499
0
0
0
0
0
0
0
0
0
0
0
1.36464
1.78784
1.31371
0.540615
0.0125996
0.261245
0.158286
0.145855
0.323844
0
0
0
0
0
0
0
0
0
0
0
0.833448
0.539042
1.11312
1.80605
0.362546
1.3091
0.707094
0
0
0
0
0
0
0
0
0
0
0
0
0
0
0.0768673
1.42812
0.73232
1.30143
0.518943
0.965336
0.0437572
0
0
0
0
0
0
0
0
0
0
0
0
0
0.350432
0.901389
1.85162
0.0472297
0
0.054909
0
0
0
0
0
0
0
0
0
0
0
0
0
0
0
0
0.0133446
0
0
0
0
0
0
0
0
0
0
0
0
0
0
0
0
0
0
0
0
0
0
0
0
0
0
0
0
0
0
0
0
0
0
0
0
0
0
0
0
0
0
0
0
0
0
0
0
0
0
0
0
0
0
0
0
0
0
0
0
0
0
0
0
0
0
0
0
0
0
0
0
0
0
0
0
0
0
0
0
0
0
0
0
0
0
0
0
0
0
0
0
0
0
0
0
0
0
0
0
0
0
0
0
0
0
0
0
0
0
0
0
0
0
0
0
0
0
0
0
0
0
0
0
0
0
0
0
0
0
0
0
0
0
0
0
0
0
0
0
0
0
0
0
0
0
0
0
0
0
0
0
0
0
0
0
0
0
0
0
0
0
0
0
0
0
0
0
0
0
0
0
0
0
0
0
0
0
0
0
0
0
0
0
0
0
0
0
0
0
0
0
0
0
0
0
0.141017
0.748988
0.947949
0.213723
0
0.0447012
0
0
0
0
0
0
0
0
0
0
0
0
0
0
0
1.61364
1.21128
0.509085
0.238645
0.395546
0.132903
0
0
0
0
0
0
0
0
0
0
0
0
0
0.289309
0.381635
0.921368
0.53715
0.0661384
1.6402
0.230008
0.059953
0
0
0
0
0
0
0
0
0
0
0
0.0333474
0.778476
1.56001
1.13536
0.58762
0.0707055
0.567132
0.102665
0.86204
0.00491472
0
0
0
0
0
0
0
0
0
0
0.391471
1.81545
1.12199
0.22214
0.196394
0.17369
0.305335
1.27015
1.32005
0.00548134
0
0
0
0
0
0
0
0
0
0
0
0.566529
0.717521
0.356387
0.18031
0
0.288614
1.01377
0.462603
0.446486
0
0
0
0
0
0
0
0
0
0
0
1.80122
1.06904
1.42945
0.0311215
0.041255
0.831147
0.930269
1.19325
0.994608
0
0
0
0
0
0
0
0
0
0
0
0.0473786
1.51974
0.87535
0.298283
0
1.04509
0.893595
0.27962
0
0
0
0
0
0
0
0
0
0
0
0
0
0.883042
1.04646
1.07782
0.0773927
1.40232
2.23534
0.986525
0
0
0
0
0
0
0
0
0
0
0
0
0
0.0368217
1.57393
0.515014
0
0.803155
1.54574
0.198058
0
0
0
0
0
0
0
0
0
0
0
0
0
0
0
0
0
0
0
0
0
0
0
0
0
0
0
0
0
0
0
0
0
0
0
0
0
0
0
0
0
0
0
0
0
0
0
0
0
0
0
0
0
0
0
0
0
0
0
0
0
0
0
0
0
0
0
0
0
0
0
0
0
0
0
0
0
0
0
0
0
0
0
0
0
0
0
0
0
0
0
0
0
0
0
0
0
0
0
0
0
0
0
0
0
0
0
0
0
0
0
0
0
0
0
0
0
0
0
0
0
0
0
0
0
0
0
0
0
0
0
0
0
0
0
0
0
0
0
0
0
0
0
0
0
0
0
0
0
0
0
0
0
0
0
0
0
0
0
0
0
0
0
0
0
0
0
0
0
0
0
0
0
0
0
0
0
0
0
0
0
0
0
0
0
0
0
0
0
0
0
0
0
0
0
0
0
0
0
0
0
0
0
0
0
0
0
0
0
0
0
0
0
0.559301
1.88942
0.255928
0.341017
0.90337
0
0
0
0
0
0
0
0
0
0
0
0
0
0
1.89661
1.28363
0.822851
0.287206
2.07341
0.87102
1.57514
0
0
0
0
0
0
0
0
0
0
0
0
0
0.892842
4.37149
0.924377
1.49102
1.89864
0.949199
1.53659
0.626473
0
0
0
0
0
0
0
0
0
0
0
0.336711
0.805435
1.9246
0.697029
0.974263
1.5518
1.44167
2.08452
0.531427
0.124608
0
0
0
0
0
0
0
0
0
0
0.231222
1.21031
0.452134
0.260258
0.48091
0.222949
0.453811
0.786598
0.890946
0.581782
0
0
0
0
0
0
0
0
0
0
0
0.0070581
0.0978356
0.475722
0.0367278
0.361096
0.0986051
1.14097
1.90124
1.45702
0
0
0
0
0
0
0
0
0
0
0.429425
1.48625
0.763568
2.0025
0.0282054
0.671069
0.558343
1.86229
2.38953
0.481991
0
0
0
0
0
0
0
0
0
0
0
0
4.00041
1.81034
0.507392
0.824382
0.851667
1.34888
1.61766
0.79972
0
0
0
0
0
0
0
0
0
0
0
0.109575
1.22837
1.76973
2.13739
1.51237
1.86689
0.878138
0.0234908
0
0
0
0
0
0
0
0
0
0
0
0
0
0
1.34018
2.57075
0.733481
0.858691
1.04995
0
0
0
0
0
0
0
0
0
0
0
0
0
0
0
0.0303614
0
0
0
0
0
0
0
0
0
0
0
0
0
0
0
0
0
0
0
0
0
0
0
0
0
0
0
0
0
0
0
0
0
0
0
0
0
0
0
0
0
0
0
0
0
0
0
0
0
0
0
0
0
0
0
0
0
0
0
0
0
0
0
0
0
0
0
0
0
0
0
0
0
0
0
0
0
0
0
0
0
0
0
0
0
0
0
0
0
0
0
0
0
0
0
0
0
0
0
0
0
0
0
0
0
0
0
0
0
0
0
0
0
0
0
0
0
0
0
0
0
0
0
0
0
0
0
0
0
0
0
0
0
0
0
0
0
0
0
0
0
0
0
0
0
0
0
0
0
0
0
0
0
0
0
0
0
0
0
0
0
0
0
0
0
0
0
0
0
0
0
0
0
0
0
0
0
0
0
0.0577213
0
0
0
0
0
0
0
0
0
0
0
0
0
0
0
0
0
0
0
0.234745
0.0800682
2.27815
0.975443
0.17674
0
0
0
0
0
0
0
0
0
0
0
0
0
1.23251
1.5146
0.88172
2.10365
3.52279
0.873177
0.977124
0.511293
0
0
0
0
0
0
0
0
0
0
0
0
0.470733
1.56472
1.86184
2.99336
1.96863
2.2101
1.8108
0.043852
0
0
0
0
0
0
0
0
0
0
0
0
1.12846
1.12221
1.00916
1.98345
1.87412
1.6067
4.11326
1.16907
0
0
0
0
0
0
0
0
0
0
0
0
0.77833
1.41559
1.72192
1.89451
0.836114
0.798442
2.01009
1.62715
0.472604
0
0
0
0
0
0
0
0
0
0
0.362061
0.473466
1.16776
1.70488
0.877387
1.68813
1.81051
2.83199
1.50965
0.338824
0
0
0
0
0
0
0
0
0
0
0
0.864223
3.18192
2.65881
0.823019
1.53217
1.39793
1.51951
1.22358
0.593061
0
0
0
0
0
0
0
0
0
0
0
0.917296
3.33084
1.20338
1.27132
2.71343
2.05044
1.17294
1.79408
0.0108061
0
0
0
0
0
0
0
0
0
0
0
0.052693
2.2845
2.67153
3.24868
3.36882
1.99344
0.129891
0.463576
0
0
0
0
0
0
0
0
0
0
0
0
0
0
0.720388
0.495438
0.665736
1.26015
0.504991
0
0
0
0
0
0
0
0
0
0
0
0
0
0
0
0
0
0
0
0
0
0
0
0
0
0
0
0
0
0
0
0
0
0
0
0
0
0
0
0
0
0
0
0
0
0
0
0
0
0
0
0
0
0
0
0
0
0
0
0
0
0
0
0
0
0
0
0
0
0
0
0
0
0
0
0
0
0
0
0
0
0
0
0
0
0
0
0
0
0
0
0
0
0
0
0
0
0
0
0
0
0
0
0
0
0
0
0
0
0
0
0
0
0
0
0
0
0
0
0
0
0
0
0
0
0
0
0
0
0
0
0
0
0
0
0
0
0
0
0
0
0
0
0
0
0
0
0
0
0
0
0
0
0
0
0
0
0
0
0
0
0
0
0
0
0
0
0
0
0
0
0
0
0
0
0
0
0
0
0
0
0
0
0
0
0
0
0
0
0
0
0
0
0
0
0
0
0
0
0
0
0
0
0
0
0
0
0
0
0
0
0
0
0
0
0.0412279
0.037638
0.81075
0.28315
0
0
0
0
0
0
0
0
0
0
0
0
0
0
0
0.181539
0.985466
1.45697
1.92385
0.256767
0
0
0
0
0
0
0
0
0
0
0
0
0
0
0.469598
1.56815
1.77602
2.70734
1.91114
3.55001
2.07008
0.474098
0
0
0
0
0
0
0
0
0
0
0
0
0.49496
0.865309
2.26183
6.66966
1.99178
2.62346
3.92042
2.22917
0
0
0
0
0
0
0
0
0
0
0
0.175656
1.37022
3.98176
3.04674
3.52347
3.2419
1.4192
2.56346
2.9671
0.108844
0
0
0
0
0
0
0
0
0
0
0
0.103468
3.81501
3.7395
1.78839
3.76794
3.72648
4.10757
2.79385
0.196217
0
0
0
0
0
0
0
0
0
0
0
1.73766
4.97824
2.43839
1.6646
3.13567
2.00203
3.20115
1.0335
0
0
0
0
0
0
0
0
0
0
0
0
1.28167
2.3955
0.936435
2.71625
3.48612
3.68824
1.8693
0.471502
0
0
0
0
0
0
0
0
0
0
0
0
0.0123308
0.0642938
2.55543
2.55094
2.22284
2.27308
0
0
0
0
0
0
0
0
0
0
0
0
0
0
0
0
0.117483
0.482173
0.0102671
0
0.00857184
0
0
0
0
0
0
0
0
0
0
0
0
0
0
0
0
0
0
0
0
0
0
0
0
0
0
0
0
0
0
0
0
0
0
0
0
0
0
0
0
0
0
0
0
0
0
0
0
0
0
0
0
0
0
0
0
0
0
0
0
0
0
0
0
0
0
0
0
0
0
0
0
0
0
0
0
0
0
0
0
0
0
0
0
0
0
0
0
0
0
0
0
0
0
0
0
0
0
0
0
0
0
0
0
0
0
0
0
0
0
0
0
0
0
0
0
0
0
0
0
0
0
0
0
0
0
0
0
0
0
0
0
0
0
0
0
0
0
0
0
0
0
0
0
0
0
0
0
0
0
0
0
0
0
0
0
0
0
0
0
0
0
0
0
0
0
0
0
0
0
0
0
0
0
0
0
0
0
0
0
0
0
0
0
0
0
0
0
0
0
0
0
0
0
0
0
0
0
0
0
0
0
0
0
0
0
0
0
0
0
0
0
0
0
0
0
0
0
0
0
0
0
0
0
0
0
0
0
0
0
0
0
0
0
0
0
0.206033
0
0.0728557
0
0
0
0
0
0
0
0
0
0
0
0
0
0
0
0.519534
1.15816
2.11098
0.69133
1.88041
1.10253
0.0942572
0
0
0
0
0
0
0
0
0
0
0
0
0.535335
2.02626
3.89464
6.52435
2.84861
1.8465
1.72149
0.512502
0
0
0
0
0
0
0