/*--------------------------------*- C++ -*----------------------------------*\
  =========                 |
  \\      /  F ield         | OpenFOAM: The Open Source CFD Toolbox
   \\    /   O peration     | Website:  https://openfoam.org
    \\  /    A nd           | Version:  9
     \\/     M anipulation  |
\*---------------------------------------------------------------------------*/
FoamFile
{
    format      ascii;
    class       dictionary;
    location    "system";
    object      fvSolution;
}
// * * * * * * * * * * * * * * * * * * * * * * * * * * * * * * * * * * * * * //

solvers
{
    "rho.*"
    {
        solver          diagonal;
    }

    p_rgh
    {
        solver          PBiCGStab;
        preconditioner  DIC;
        tolerance       1e-6;
        relTol          1e-2;
    }

    ph_rgh
    {
        solver          PBiCGStab;
        preconditioner  DIC;
        tolerance       1e-6;
        relTol          1e-2;
    }
    
    p_rghFinal
    {
        $p_rgh;
        relTol          1e-3;
    }

    ph_rghFinal
    {
        $p_rgh;
				tolerance				1e-6;
    }
    "(U|h|e|k|epsilon|H2O|lwc)"
    {
        solver          PBiCGStab;
        preconditioner  DILU;
        tolerance       1e-6;
        relTol          1e-4;
    }

    "(U|h|e|k|epsilon|H2O|lwc)Final"
    {
        $U;
        relTol          0;
    }
}

SIMPLE
{
    momentumPredictor yes;
    nOuterCorrectors 5;
    nCorrectors     5;
    nNonOrthogonalCorrectors 0;

    pRefCell        0;
    pRefValue       1e5;

		hydrostaticInitialisation   no;
}

PIMPLE
{
    momentumPredictor yes;
    nOuterCorrectors 1;
    nCorrectors     2;
    nNonOrthogonalCorrectors 0;

    pRefCell        0;
    pRefValue       0;

		hydrostaticInitialisation   no;
		atmHydrostaticInitialisation   yes;
}

relaxationFactors
{
		fields
		{
			p					0.5;
			p_rgh			0.5;
			rho				0.5;
		}
		equations
		{
			U					0.5;
			p_rgh			0.5;
			k					0.5;
			epsilon		0.5;
			e					0.5;
		}
}



// ************************************************************************* //
