/*--------------------------------*- C++ -*----------------------------------*\
  =========                 |
  \\      /  F ield         | OpenFOAM: The Open Source CFD Toolbox
   \\    /   O peration     | Website:  https://openfoam.org
    \\  /    A nd           | Version:  9
     \\/     M anipulation  |
\*---------------------------------------------------------------------------*/
FoamFile
{
    format      ascii;
    class       dictionary;
    location    "system";
    object      fvSolution;
}
// * * * * * * * * * * * * * * * * * * * * * * * * * * * * * * * * * * * * * //

solvers
{
    "rho.*"
    {
        solver          diagonal;
    }

    p_rgh
    {
        solver          PCG;
        preconditioner  DIC;
        tolerance       1e-06;
        relTol          0.01;
    }

    p_rghFinal
    {
        $p_rgh;
        relTol          1e-3;
    }


    "Ii.*"
    {
        solver              GAMG;
        tolerance           1e-4;
        relTol              0;
        smoother            symGaussSeidel;
        maxIter             5;
        nPostSweeps         1;
    }

    "(U|theta|k|epsilon|H2O|lwc)"
    {
        solver          PBiCGStab;
        preconditioner  DILU;
        tolerance       1e-05;
        relTol          0.1;
    }
    "(U|theta|k|epsilon|H2O|lwc)Final"
    {
        $U;
        relTol          0;
    }
}

SIMPLE
{
    nNonOrthogonalCorrectors 0;
    pRefCell        0;
    pRefValue       0;

    residualControl
    {
        p_rgh           1e-2;
        U               1e-3;
        h               1e-3;
        G               1e-3;

        // possibly check turbulence fields
        "(k|epsilon|omega)" 1e-3;
        "ILambda.*"     1e-3;
    }
}

PIMPLE
{
    momentumPredictor yes;
    nOuterCorrectors 1;
    nCorrectors     2;
    nNonOrthogonalCorrectors 0;

    pRefCell        0;
    pRefValue       0;
}

relaxationFactors
{
    fields
    {
        rho             1.0;
        p_rgh           0.7;
    }
    equations
    {
        U               0.2;
        h               0.2;
        k               0.5;
        epsilon         0.5;
        "ILambda.*"     0.7;
    }
}


// ************************************************************************* //
