/*--------------------------------*- C++ -*----------------------------------*\
  =========                 |
  \\      /  F ield         | OpenFOAM: The Open Source CFD Toolbox
   \\    /   O peration     | Website:  https://openfoam.org
    \\  /    A nd           | Version:  9
     \\/     M anipulation  |
\*---------------------------------------------------------------------------*/
FoamFile
{
    format      ascii;
    class       dictionary;
    location    "constant";
    object      momentumTransport;
}
// * * * * * * * * * * * * * * * * * * * * * * * * * * * * * * * * * * * * * //

simulationType  LES;

RAS
{
    model           kEpsilon;

    turbulence      on;

    printCoeffs     on;
}

LES
{
		model						incompressibleKEqn;
		// model						kEqn;
    turbulence      on;

    printCoeffs     on;
		
		delta						cubeRootVol;
}


// ************************************************************************* //
