/*--------------------------------*- C++ -*----------------------------------*\
  =========                 |
  \\      /  F ield         | OpenFOAM: The Open Source CFD Toolbox
   \\    /   O peration     | Website:  https://openfoam.org
    \\  /    A nd           | Version:  9
     \\/     M anipulation  |
\*---------------------------------------------------------------------------*/
FoamFile
{
    format      ascii;
    class       volScalarField;
    object      T;
}
// * * * * * * * * * * * * * * * * * * * * * * * * * * * * * * * * * * * * * //

dimensions      [1 -3 0 0 0 0 0];

internalField   uniform 0.001;

boundaryField
{
    floor
    {
        type            fixedValue;
        value           uniform 0.001;
    }

    ceiling
    {
        type            fixedValue;
        value           uniform 0.001;
    }

    fixedWalls
    {
        type            zeroGradient;
    }
}

// ************************************************************************* //
